Circuit: * C:\Users\jeanv\Documents\Cours\TIPE\simuMoinsBien\LTSPICE\Draft1.asc

Direct Newton iteration for .op point succeeded.

Date: Mon Dec 20 15:43:19 2021
Total elapsed time: 0.437 seconds.

tnom = 27
temp = 27
method = modified trap
totiter = 33047
traniter = 33036
tranpoints = 16519
accept = 10519
rejected = 6000
matrix size = 114
fillins = 87
solver = Normal
Thread vector: 4.5/2.9[2] 1.7/1.3[2] 1.2/0.8[2] 0.3/0.7[1]  2592/500
Matrix Compiler1: 9.00 KB object code size  1.3/0.7/[0.3]
Matrix Compiler2: 10.66 KB object code size  0.6/0.8/[0.3]

