Circuit: * C:\Users\jeanv\Documents\Cours\TIPE\simuMoinsBien\LTSPICE\SimuSonore.asc

Questionable use of curly braces in "b§gi10 98 45 i={if((v(z)/v(w))<(2.01/21),(v(xout)*v(yout))/(1.05*(1-(v(z)/v(w)))),((v(xout)*v(yout))/(1.05)))} "
    Error: undefined symbol in: "if(([v](z)/v(w))<(2.01/21),(v(xout)*v(yout))/(1.05*(1-(v(z)/v(w)))),((v(xout)*v(yout))/(1.05)))"
Questionable use of curly braces in "b§gi10 98 45 i={if((v(z)/v(w))<(2.01/21),(v(xout)*v(yout))/(1.05*(1-(v(z)/v(w)))),((v(xout)*v(yout))/(1.05)))} "
    Error: undefined symbol in: "if(([v](z)/v(w))<(2.01/21),(v(xout)*v(yout))/(1.05*(1-(v(z)/v(w)))),((v(xout)*v(yout))/(1.05)))"
Early termination of direct N-R iteration.
Direct Newton iteration failed to find .op point.  (Use ".option noopiter" to skip.)
Starting Gmin stepping
Gmin = 10
vernier = 0.5
vernier = 0.25
vernier = 0.125
Gmin = 5.5165
vernier = 0.0625
vernier = 0.03125
vernier = 0.015625
vernier = 0.0078125
Gmin = 5.49501
vernier = 0.00390625
vernier = 0.00195313
vernier = 0.000976563
vernier = 0.000488281
Gmin = 5.50104
Gmin = 0
Gmin stepping failed

Starting source stepping with srcstepmethod=0
Source Step = 3.0303%
Source Step = 12.1212%
Source Step = 19.697%
Source Step = 27.2727%
Source Step = 34.8485%
Source Step = 42.4242%
vernier = 0.375
Source Step = 52.6515%
Source Step = 64.0152%
Source Step = 75.3788%
Source Step = 86.7424%
Source Step = 98.1061%
vernier = 0.09375
Source stepping aborted.
Starting source stepping with srcstepmethod=1
Source Step = 3.0303%
Source Step = 6.07244%
Source Step = 6.10204%
Source Step = 6.13163%
Source Step = 6.16122%
Source Step = 6.19081%
vernier = 0.00146484
Source Step = 6.22189%
Source Step = 6.26628%
Source Step = 6.31067%
Source Step = 6.35505%
Source Step = 6.39944%
Source Step = 6.44383%
vernier = 0.00219727
Source Step = 6.51042%
Source Step = 6.577%
Source Step = 6.64358%
Source Step = 6.71017%
Source Step = 6.77675%
vernier = 0.0032959
Source Step = 6.8733%
Source Step = 6.97317%
Source Step = 7.07305%
Source Step = 7.17293%
Source Step = 7.2728%
vernier = 0.00494385
Source Step = 7.41263%
Source Step = 7.56244%
Source Step = 7.71225%
Source Step = 7.86207%
Source Step = 8.01188%
vernier = 0.00741577
Source Step = 8.21413%
Source Step = 8.43885%
Source Step = 8.66357%
Source Step = 8.88829%
Source Step = 9.11301%
vernier = 0.0111237
Source Step = 9.40515%
Source Step = 9.74223%
Source Step = 10.0793%
Source Step = 10.4164%
Source Step = 10.7535%
vernier = 0.0166855
Source Step = 11.1748%
Source Step = 11.6804%
Source Step = 12.1861%
Source Step = 12.6917%
Source Step = 13.1973%
vernier = 0.0250282
Source Step = 13.804%
Source Step = 14.5625%
Source Step = 15.3209%
Source Step = 16.0793%
Source Step = 16.8378%
vernier = 0.0375423
Source Step = 17.71%
Source Step = 18.8476%
Source Step = 19.9853%
Source Step = 21.1229%
Source Step = 22.2606%
vernier = 0.0563135
Source Step = 23.512%
Source Step = 25.2184%
Source Step = 26.9249%
Source Step = 28.6314%
Source Step = 30.3378%
vernier = 0.0844703
Source Step = 32.1296%
Source Step = 34.6893%
Source Step = 37.2491%
Source Step = 39.8088%
Source Step = 42.3685%
Source Step = 44.9282%
vernier = 0.126705
Source Step = 48.7677%
Source Step = 52.6073%
Source Step = 56.4468%
Source Step = 60.2864%
Source Step = 64.126%
vernier = 0.190058
Source Step = 69.6933%
Source Step = 75.4527%
Source Step = 81.212%
Source Step = 86.9713%
Source Step = 92.7307%
Source Step = 92.7937%
Source Step = 92.8836%
Source Step = 92.9736%
Source Step = 93.0636%
Source Step = 93.1536%
Source Step = 93.2436%
Source Step = 93.3336%
vernier = 0.00445449
Source Step = 93.4686%
Source Step = 93.6036%
Source Step = 93.7385%
Source Step = 93.8735%
Source Step = 94.0085%
vernier = 0.00668173
Source Step = 94.2042%
Source Step = 94.4067%
Source Step = 94.6092%
Source Step = 94.8117%
Source Step = 95.0141%
vernier = 0.0100226
Source Step = 95.2976%
Source Step = 95.6013%
Source Step = 95.905%
Source Step = 96.2088%
Source Step = 96.5125%
vernier = 0.0150339
Source Step = 96.9225%
Source Step = 97.3781%
Source Step = 97.8336%
Source Step = 98.2892%
Source Step = 98.7448%
vernier = 0.0225508
Source Step = 99.337%
Source Step = 100%
Source stepping succeeded in finding the operating point.


Date: Thu Dec 23 14:30:44 2021
Total elapsed time: 71.693 seconds.

tnom = 27
temp = 27
method = modified trap
totiter = 1997825
traniter = 1984131
tranpoints = 322805
accept = 241492
rejected = 81313
matrix size = 318
fillins = 899
solver = Normal
Thread vector: 17.1/10.1[9] 12.3/4.2[9] 9.1/3.5[9] 1.2/2.7[1]  2592/500
Matrix Compiler1: 71.15 KB object code size  14.6/7.0/[3.3]
Matrix Compiler2: 41.53 KB object code size  12.2/10.4/[2.3]

