Circuit: * C:\Users\jeanv\Documents\Cours\TIPE\simuMoinsBien\LTSPICE\SimuSonore.asc

Questionable use of curly braces in "b§gi10 98 45 i={if((v(z)/v(w))<(2.01/21),(v(xout)*v(yout))/(1.05*(1-(v(z)/v(w)))),((v(xout)*v(yout))/(1.05)))} "
    Error: undefined symbol in: "if(([v](z)/v(w))<(2.01/21),(v(xout)*v(yout))/(1.05*(1-(v(z)/v(w)))),((v(xout)*v(yout))/(1.05)))"
Questionable use of curly braces in "b§gi10 98 45 i={if((v(z)/v(w))<(2.01/21),(v(xout)*v(yout))/(1.05*(1-(v(z)/v(w)))),((v(xout)*v(yout))/(1.05)))} "
    Error: undefined symbol in: "if(([v](z)/v(w))<(2.01/21),(v(xout)*v(yout))/(1.05*(1-(v(z)/v(w)))),((v(xout)*v(yout))/(1.05)))"
Early termination of direct N-R iteration.
Direct Newton iteration failed to find .op point.  (Use ".option noopiter" to skip.)
Starting Gmin stepping
Gmin = 10
vernier = 0.5
vernier = 0.25
vernier = 0.125
Gmin = 5.5165
vernier = 0.0625
vernier = 0.03125
vernier = 0.015625
vernier = 0.0078125
Gmin = 5.49501
vernier = 0.00390625
vernier = 0.00195313
vernier = 0.000976563
vernier = 0.000488281
Gmin = 5.50104
Gmin = 0
Gmin stepping failed

Starting source stepping with srcstepmethod=0
Source Step = 3.0303%
Source Step = 12.1212%
Source Step = 19.697%
Source Step = 27.2727%
Source Step = 34.8485%
Source Step = 42.4242%
vernier = 0.375
Source Step = 52.6515%
Source Step = 64.0152%
Source Step = 75.3788%
Source Step = 86.7424%
Source Step = 98.1061%
vernier = 0.09375
Source Step = 99.8106%
Source stepping succeeded in finding the operating point.


amplitude1: (v(sortiecrete1))=0.781402
amplitude2: (v(sortiecrete2))=0.781252
amplitude3: (v(sortiecrete3))=0.781252
amplitudefondmult1: (v(sortiepb1))=0.0764357
amplitudefondmult2: (v(sortiepb2))=0.0764357
dephasage1: arccos(2*amplitudefondmult1 / (amplitude2*amplitude1))/2=37.749
dephasage2: arccos(2*amplitudefondmult2 / (amplitude3*amplitude1))/2=37.749
direction11: arccos(72/dephasage1)+(tetaantenne1+tetaantenne2)/2=-1.#IND
direction12: -(arccos(72/dephasage1))+(tetaantenne1+tetaantenne2)/2=1.#QNAN
direction21: arccos(72/dephasage2)+(tetaantenne1+tetaantenne3)/2=-1.#IND
direction22: -(arccos(72/dephasage2))+(tetaantenne1+tetaantenne3)/2=1.#QNAN
phasetheo1: (phase1)=158848
phasetheo2: (phase2)=158863
phasetheo3: (phase3)=158863
dephasage1o: arccos(2*amplitudefondmult1 / (amplitude2*amplitude1))/2=37.749
dephasage2o: arccos(2*amplitudefondmult2 / (amplitude3*amplitude1))/2=37.749
direction11o: arcsin(-dephasage1*lambda/(180))+(tetaantenne1+tetaantenne2)/2=46.2504
direction12o: -(arcsin(-dephasage1*lambda/(180)))+(tetaantenne1+tetaantenne2)/2=73.7496
direction21o: arcsin(-dephasage2*lambda/(180))+(tetaantenne1+tetaantenne3)/2=106.25
direction22o: -(arcsin(-dephasage2*lambda/(180)))+(tetaantenne1+tetaantenne3)/2=133.75


Date: Tue May 17 11:49:45 2022
Total elapsed time: 12.701 seconds.

tnom = 27
temp = 27
method = modified trap
totiter = 243932
traniter = 238955
tranpoints = 38414
accept = 28731
rejected = 9683
matrix size = 318
fillins = 1038
solver = Normal
Thread vector: 40.4/13.5[9] 12.3/4.8[9] 9.7/3.7[9] 3.0/2.4[3]  2592/500
Matrix Compiler1: 81.78 KB object code size  23.4/13.2/[6.9]
Matrix Compiler2: 43.93 KB object code size  10.0/12.2/[5.0]

