Circuit: * C:\Users\jeanv\Documents\Cours\TIPE\TestPythonLTSPICE\SimuSonore.asc

Questionable use of curly braces in "b§gi10 98 45 i={if((v(z)/v(w))<(2.01/21),(v(xout)*v(yout))/(1.05*(1-(v(z)/v(w)))),((v(xout)*v(yout))/(1.05)))} "
    Error: undefined symbol in: "if(([v](z)/v(w))<(2.01/21),(v(xout)*v(yout))/(1.05*(1-(v(z)/v(w)))),((v(xout)*v(yout))/(1.05)))"
Questionable use of curly braces in "b§gi10 98 45 i={if((v(z)/v(w))<(2.01/21),(v(xout)*v(yout))/(1.05*(1-(v(z)/v(w)))),((v(xout)*v(yout))/(1.05)))} "
    Error: undefined symbol in: "if(([v](z)/v(w))<(2.01/21),(v(xout)*v(yout))/(1.05*(1-(v(z)/v(w)))),((v(xout)*v(yout))/(1.05)))"
Early termination of direct N-R iteration.
Direct Newton iteration failed to find .op point.  (Use ".option noopiter" to skip.)
Starting Gmin stepping
Gmin = 10
vernier = 0.5
vernier = 0.25
vernier = 0.125
Gmin = 5.5165
vernier = 0.0625
vernier = 0.03125
vernier = 0.015625
vernier = 0.0078125
Gmin = 5.49501
vernier = 0.00390625
vernier = 0.00195313
vernier = 0.000976563
vernier = 0.000488281
Gmin = 5.50104
Gmin = 0
Gmin stepping failed

Starting source stepping with srcstepmethod=0
Source Step = 3.0303%
Source Step = 12.1212%
Source Step = 19.697%
Source Step = 27.2727%
Source Step = 34.8485%
Source Step = 42.4242%
vernier = 0.375
Source Step = 52.6515%
Source Step = 64.0152%
Source Step = 75.3788%
Source Step = 86.7424%
Source Step = 98.1061%
vernier = 0.09375
Source Step = 99.8106%
Source stepping succeeded in finding the operating point.


Date: Wed May 18 14:54:52 2022
Total elapsed time: 91.974 seconds.

tnom = 27
temp = 27
method = modified trap
totiter = 2473438
traniter = 2468461
tranpoints = 400492
accept = 300082
rejected = 100410
matrix size = 318
fillins = 1038
solver = Normal
Thread vector: 25.6/12.5[9] 12.4/5.3[9] 7.8/4.2[9] 2.0/2.1[1]  2592/500
Matrix Compiler1: 81.78 KB object code size  23.0/12.3/[5.6]
Matrix Compiler2: 43.93 KB object code size  12.6/10.9/[3.9]

