Circuit: * C:\Users\jeanv\Documents\Cours\TIPE\simuMoinsBien\TestPythonLTSPICE - 4D\SimuSonore.asc

Questionable use of curly braces in "b§gi10 98 45 i={if((v(z)/v(w))<(2.01/21),(v(xout)*v(yout))/(1.05*(1-(v(z)/v(w)))),((v(xout)*v(yout))/(1.05)))} "
    Error: undefined symbol in: "if(([v](z)/v(w))<(2.01/21),(v(xout)*v(yout))/(1.05*(1-(v(z)/v(w)))),((v(xout)*v(yout))/(1.05)))"
Questionable use of curly braces in "b§gi10 98 45 i={if((v(z)/v(w))<(2.01/21),(v(xout)*v(yout))/(1.05*(1-(v(z)/v(w)))),((v(xout)*v(yout))/(1.05)))} "
    Error: undefined symbol in: "if(([v](z)/v(w))<(2.01/21),(v(xout)*v(yout))/(1.05*(1-(v(z)/v(w)))),((v(xout)*v(yout))/(1.05)))"
Questionable use of curly braces in "b§gi10 98 45 i={if((v(z)/v(w))<(2.01/21),(v(xout)*v(yout))/(1.05*(1-(v(z)/v(w)))),((v(xout)*v(yout))/(1.05)))} "
    Error: undefined symbol in: "if(([v](z)/v(w))<(2.01/21),(v(xout)*v(yout))/(1.05*(1-(v(z)/v(w)))),((v(xout)*v(yout))/(1.05)))"
Questionable use of curly braces in "b§gi10 98 45 i={if((v(z)/v(w))<(2.01/21),(v(xout)*v(yout))/(1.05*(1-(v(z)/v(w)))),((v(xout)*v(yout))/(1.05)))} "
    Error: undefined symbol in: "if(([v](z)/v(w))<(2.01/21),(v(xout)*v(yout))/(1.05*(1-(v(z)/v(w)))),((v(xout)*v(yout))/(1.05)))"
Questionable use of curly braces in "b§gi10 98 45 i={if((v(z)/v(w))<(2.01/21),(v(xout)*v(yout))/(1.05*(1-(v(z)/v(w)))),((v(xout)*v(yout))/(1.05)))} "
    Error: undefined symbol in: "if(([v](z)/v(w))<(2.01/21),(v(xout)*v(yout))/(1.05*(1-(v(z)/v(w)))),((v(xout)*v(yout))/(1.05)))"
Early termination of direct N-R iteration.
Direct Newton iteration failed to find .op point.  (Use ".option noopiter" to skip.)
Starting Gmin stepping
Gmin = 10
vernier = 0.5
vernier = 0.25
vernier = 0.125
Gmin = 5.5165
vernier = 0.0625
vernier = 0.03125
vernier = 0.015625
vernier = 0.0078125
Gmin = 5.49501
vernier = 0.00390625
vernier = 0.00195313
vernier = 0.000976563
vernier = 0.000488281
Gmin = 5.50104
Gmin = 0
Gmin stepping failed

Starting source stepping with srcstepmethod=0
Source Step = 3.0303%
Source Step = 7.38636%
Source Step = 9.2803%
Source Step = 11.1742%
Source Step = 13.0682%
Source Step = 14.9621%
vernier = 0.09375
Source Step = 17.4242%
Source Step = 20.2652%
Source Step = 23.1061%
Source Step = 25.947%
Source Step = 28.7879%
vernier = 0.140625
Source Step = 32.339%
Source Step = 36.6004%
Source Step = 40.8617%
Source Step = 45.1231%
Source Step = 49.3845%
vernier = 0.210938
Source Step = 54.4981%
Source Step = 60.8902%
Source Step = 67.2822%
Source Step = 73.6742%
Source Step = 80.0663%
vernier = 0.316406
Source Step = 87.4171%
Source Step = 97.0052%
Source Step = 99.1625%
Source stepping succeeded in finding the operating point.


Date: Thu May 19 09:35:52 2022
Total elapsed time: 261.553 seconds.

tnom = 27
temp = 27
method = modified trap
totiter = 2554150
traniter = 2548763
tranpoints = 416343
accept = 312005
rejected = 104338
matrix size = 708
fillins = 2026
solver = Normal
Thread vector: 67.8/26.8[12] 29.4/15.8[12] 20.0/11.0[12] 5.4/3.6[8]  2592/500
Matrix Compiler1: 177.44 KB object code size  63.5/32.5/[18.2]
Matrix Compiler2: 92.81 KB object code size  26.7/29.0/[9.8]

